tests/data/pglib-opf/case5_pjm_pwl.json
{"version": "1.0", "type": "input", "is_batch": false, "attributes": {}, "data": {"node": [{"id": 1, "u_rated": 1.0}, {"id": 2, "u_rated": 1.0}, {"id": 3, "u_rated": 1.0}, {"id": 4, "u_rated": 1.0}, {"id": 5, "u_rated": 1.0}], "line": [{"id": 10000011, "from_node": 1, "to_node": 2, "from_status": 1, "to_status": 1, "r1": 2.8100000000000002e-11, "x1": 2.81e-10, "c1": 2266.36638962859, "tan1": 0.0, "r0": 2.8100000000000002e-11, "x0": 2.81e-10, "c0": 2266.36638962859, "tan0": 0.0}, {"id": 10000012, "from_node": 1, "to_node": 4, "from_status": 1, "to_status": 1, "r1": 3.04e-11, "x1": 3.04e-10, "c1": 2094.4790510893426, "tan1": 0.0, "r0": 3.04e-11, "x0": 3.04e-10, "c0": 2094.4790510893426, "tan0": 0.0}, {"id": 10000013, "from_node": 1, "to_node": 5, "from_status": 1, "to_status": 1, "r1": 6.400000000000001e-12, "x1": 6.4e-11, "c1": 9950.367042105298, "tan1": 0.0, "r0": 6.400000000000001e-12, "x0": 6.4e-11, "c0": 9950.367042105298, "tan0": 0.0}, {"id": 10000014, "from_node": 2, "to_node": 3, "from_status": 1, "to_status": 1, "r1": 1.0800000000000001e-11, "x1": 1.08e-10, "c1": 5895.099092123803, "tan1": 0.0, "r0": 1.0800000000000001e-11, "x0": 1.08e-10, "c0": 5895.099092123803, "tan0": 0.0}, {"id": 10000015, "from_node": 3, "to_node": 4, "from_status": 1, "to_status": 1, "r1": 2.97e-11, "x1": 2.97e-10, "c1": 2145.408632878749, "tan1": 0.0, "r0": 2.97e-11, "x0": 2.97e-10, "c0": 2145.408632878749, "tan0": 0.0}, {"id": 10000016, "from_node": 4, "to_node": 5, "from_status": 1, "to_status": 1, "r1": 2.97e-11, "x1": 2.97e-10, "c1": 2145.408632878749, "tan1": 0.0, "r0": 2.97e-11, "x0": 2.97e-10, "c0": 2145.408632878749, "tan0": 0.0}], "source": [{"id": 10000008, "node": 4, "status": 1, "u_ref": 1.0, "sk": 10000000000.0, "rx_ratio": 0.1}], "sym_load": [{"id": 10000001, "node": 2, "status": 1, "type": 0, "p_specified": 300000000.0, "q_specified": 98610000.0}, {"id": 10000002, "node": 3, "status": 1, "type": 0, "p_specified": 300000000.0, "q_specified": 98610000.0}, {"id": 10000003, "node": 4, "status": 1, "type": 0, "p_specified": 400000000.0, "q_specified": 131470000.0}], "sym_gen": [{"id": 10000004, "node": 1, "status": 1, "type": 0, "p_specified": 105000000.0, "q_specified": 0.0}, {"id": 10000006, "node": 3, "status": 1, "type": 0, "p_specified": 260000000.0, "q_specified": 0.0}, {"id": 10000009, "node": 5, "status": 1, "type": 0, "p_specified": 300000000.0, "q_specified": 0.0}], "shunt": [], "transformer": [], "voltage_regulator": [{"id": 10000005, "regulated_object": 10000004, "status": 1, "u_ref": 1.0, "q_min": -157500000.0, "q_max": 157500000.0}, {"id": 10000007, "regulated_object": 10000006, "status": 1, "u_ref": 1.0, "q_min": -390000000.0, "q_max": 390000000.0}, {"id": 10000010, "regulated_object": 10000009, "status": 1, "u_ref": 1.0, "q_min": -450000000.0, "q_max": 450000000.0}]}}